Version 4.1
SHEET 1 880 680
WIRE 288 64 176 64
WIRE 384 64 288 64
WIRE 288 96 288 64
WIRE 176 128 176 64
WIRE 384 144 384 64
WIRE 224 208 176 208
WIRE 288 208 288 176
WIRE 288 208 224 208
WIRE 384 208 288 208
FLAG 224 208 0
SYMBOL res 272 80 R0
SYMATTR InstName R1
SYMATTR Value 10
SYMBOL Q-LTlib\\1st-pty\\generic\\Li-Ion 48 176 R0
SYMATTR InstName X1
SYMBOL load 368 144 R0
SYMATTR InstName LOAD
SYMATTR Value R=10**(int(time/100)%10)
SYMATTR Prefix B
TEXT 152 240 Left 2 !.tran 36000
